Version 4
SHEET 1 1948 1164
WIRE -368 -288 -448 -288
WIRE -192 -288 -288 -288
WIRE -592 -208 -624 -208
WIRE -448 -208 -448 -288
WIRE -448 -208 -592 -208
WIRE -192 -208 -192 -288
WIRE -48 -208 -192 -208
WIRE 16 -208 -48 -208
WIRE 144 -208 16 -208
WIRE 272 -208 224 -208
WIRE 416 -208 352 -208
WIRE 512 -208 416 -208
WIRE 560 -208 512 -208
WIRE 688 -208 560 -208
WIRE -48 -176 -48 -208
WIRE 416 -176 416 -208
WIRE -448 -128 -448 -208
WIRE -368 -128 -448 -128
WIRE -192 -128 -192 -208
WIRE -192 -128 -288 -128
WIRE -624 -112 -624 -208
WIRE 560 -96 560 -208
WIRE 416 -80 416 -112
WIRE -48 -64 -48 -96
WIRE -624 112 -624 -32
WIRE -48 112 -48 16
WIRE -48 112 -624 112
WIRE 416 112 416 0
WIRE 416 112 -48 112
WIRE 560 112 560 -16
WIRE 560 112 416 112
WIRE -624 160 -624 112
WIRE 80 272 32 272
WIRE 240 272 160 272
WIRE 368 272 304 272
WIRE 368 352 368 272
WIRE 480 352 368 352
WIRE 688 352 688 -208
WIRE 688 352 560 352
WIRE 368 400 368 352
WIRE 368 400 144 400
WIRE -352 416 -384 416
WIRE 32 416 32 272
WIRE 32 416 -352 416
WIRE 80 416 32 416
WIRE 304 432 144 432
WIRE 304 480 304 432
WIRE 304 624 304 560
FLAG -624 160 0
FLAG 512 -208 out
FLAG 16 -208 sq
FLAG -592 -208 b
FLAG -352 416 d
FLAG 304 624 0
SYMBOL cap 400 -176 R0
SYMATTR InstName C1
SYMATTR Value {C}
SYMBOL voltage -624 -128 R0
WINDOW 123 42 57 Left 2
WINDOW 39 0 0 Left 0
SYMATTR InstName VB
SYMATTR Value 0
SYMBOL res 544 -112 R0
SYMATTR InstName R1
SYMATTR Value {R}
SYMBOL res 400 -96 R0
SYMATTR InstName R2
SYMATTR Value {rC}
SYMBOL res 368 -224 R90
WINDOW 0 0 56 VBottom 2
WINDOW 3 32 56 VTop 2
SYMATTR InstName R3
SYMATTR Value {rL}
SYMBOL Misc\\Gpoly -272 -288 R90
WINDOW 0 62 56 VBottom 2
WINDOW 3 -40 49 VBottom 2
SYMATTR InstName Gsd
SYMATTR Value value = {ksd*V(d)}
SYMBOL Misc\\Gpoly -272 -128 R90
WINDOW 0 62 56 VBottom 2
WINDOW 3 90 56 VBottom 2
SYMATTR InstName Gsl
SYMATTR Value value = {ksl*i(L1)}
SYMBOL Misc\\Epoly -48 -192 R0
WINDOW 3 39 60 Left 2
SYMATTR Value value = {kdd*V(d)}
SYMATTR InstName Edd
SYMBOL Misc\\Epoly -48 -80 R0
WINDOW 3 43 60 Left 2
SYMATTR Value value = {kdb*V(b)}
SYMATTR InstName Edb
SYMBOL ind 128 -192 R270
WINDOW 0 32 56 VTop 2
WINDOW 3 5 56 VBottom 2
SYMATTR InstName L1
SYMATTR Value {L}
SYMBOL res 176 256 R90
WINDOW 0 0 56 VBottom 2
WINDOW 3 32 56 VTop 2
SYMATTR InstName R6
SYMATTR Value 1.81k
SYMBOL cap 304 256 R90
WINDOW 0 0 32 VBottom 2
WINDOW 3 32 32 VTop 2
SYMATTR InstName C3
SYMATTR Value 10n
SYMBOL res 576 336 R90
WINDOW 0 0 56 VBottom 2
WINDOW 3 32 56 VTop 2
SYMATTR InstName R7
SYMATTR Value 1.81k
SYMBOL MyOpamp 112 416 R180
WINDOW 39 57 -98 Center 2
WINDOW 40 52 -66 Center 2
WINDOW 0 16 28 Left 2
WINDOW 38 15 -34 Left 2
SYMATTR SpiceLine2 Ao=1e6 FBW=100e6
SYMATTR InstName U1
SYMBOL voltage 304 464 M0
WINDOW 123 -84 65 Left 2
WINDOW 39 0 0 Left 0
WINDOW 0 -83 11 Left 2
WINDOW 3 -57 37 Left 2
SYMATTR Value2 AC 1
SYMATTR InstName Vref
SYMATTR Value 5
TEXT 392 -456 Left 2 !.param ksd=Vo/R\n.param ksl=D\n \n.param kdd=VB\n.param kdb=D
TEXT 8 -536 Left 2 !.param VB=10\n.param D=0.53\n \n.param L=10u\n.param C=33u\n.param R=1\n.param rL=0.05\n.param rC=0.1\n.param Vo=D*VB/(1 + rL/R)
TEXT -464 -480 Left 2 !.ac dec 100 10 1meg
TEXT -464 -440 Left 2 !.meas Vo_value param Vo
